12
Energy = 1
C         -2.97431        0.42856       -0.00000
C         -4.20822        1.08794       -0.00000
C         -5.39621        0.34903        0.00000
C         -5.35030       -1.04926       -0.00000
C         -4.11639       -1.70864       -0.00000
C         -2.92839       -0.96973       -0.00000
H         -1.97380       -1.47984       -0.00000
H         -2.05524        1.00021       -0.00000
H         -4.24374        2.16970        0.00000
H         -6.35080        0.85915        0.00000
H         -6.26936       -1.62090       -0.00000
H         -4.08087       -2.79039       -0.00000
12
Energy = 5
C         -2.97431        0.42856       -1.00000
C         -4.20822        1.08794       -1.00000
C         -5.39621        0.34903        1.00000
C         -5.35030       -1.04926       -1.00000
C         -4.11639       -1.70864       -1.00000
C         -2.92839       -0.96973       -1.00000
H         -1.97380       -1.47984       -1.00000
H         -2.05524        1.00021       -1.00000
H         -4.24374        2.16970        1.00000
H         -6.35080        0.85915        1.00000
H         -6.26936       -1.62090       -1.00000
H         -4.08087       2.0       -1.00000
12
Energy = 7
C         -2.97431        0.42856       -2.00000
C         -4.20822        1.08794       -2.00000
C         -5.39621        0.34903        2.00000
C         -5.35030       -1.04926       -2.00000
C         -4.11639       -1.70864       -2.00000
C         -2.92839       -0.96973       -2.00000
H         -1.97380       -1.47984       -2.00000
H         -2.05524        1.00021       -2.00000
H         -4.24374        2.16970        2.00000
H         -6.35080        0.85915        2.00000
H         -6.26936       -1.62090       -2.00000
H         -4.08087       3.0       -2.00000
