90
Energy =
Au   -4.3275000   -2.4984800   -6.7967800 
Au   -2.8850000    0.0000000   -6.7967800 
Au   -1.4425000    2.4984800   -6.7967800 
Au    0.0000000    4.9969700   -6.7967800 
Au   -1.4425000   -2.4984800   -6.7967800 
Au    0.0000000    0.0000000   -6.7967800 
Au    1.4425000    2.4984800   -6.7967800 
Au    1.4425000   -2.4984800   -6.7967800 
Au    2.8850000    0.0000000   -6.7967800 
Au    4.3275000   -2.4984800   -6.7967800 
Au   -2.8850000   -1.6656600   -4.4411900 
Au   -1.4425000    0.8328300   -4.4411900 
Au    0.0000000    3.3313100   -4.4411900 
Au    0.0000000   -1.6656600   -4.4411900 
Au    1.4425000    0.8328300   -4.4411900 
Au    2.8850000   -1.6656600   -4.4411900 
Au   -0.0176265    1.9604392   -2.1598811 
Au   -1.6903246   -0.9672293   -2.1668183 
Au    1.7009376   -0.9981074   -2.1516913 
S    -0.0285038    0.0053888   -0.6202893 
C    -0.2993610    0.0224644    1.1456505 
H    -2.1865255   -1.0588005    1.0163592 
H     1.5265544    1.1360034    1.5684216 
C    -1.4512348   -0.5815596    1.6854767 
C     0.6277893    0.6593541    1.9916582 
C    -1.6635926   -0.5532774    3.0679241 
C     0.4007232    0.6782252    3.3726035 
H    -2.5849514   -0.9952772    3.4803222 
H     1.1387149    1.1677172    4.0271047 
C    -0.7403068    0.0656821    3.9444125 
H    -1.3350385   -2.6329570    4.6179108 
H     0.9015638   -3.0395122    4.9552922 
C    -0.9976901    0.1079488    5.4064087 
H    -0.2870897    2.1482804    5.5684495 
H     2.1814237   -0.9554125    5.0577562 
C    -1.1155487   -2.4681021    5.6915277 
C    -0.7212900    1.2956521    6.1184690 
C    -1.4185901   -1.0456262    6.1356910 
C     0.4102440   -2.9023064    5.9418935 
H    -1.7726958   -3.1602281    6.2601078 
C     1.9288985   -0.8701367    6.1282068 
H     2.6125820    1.1801671    6.2488543 
H     0.4034816   -3.8958080    6.4406837 
C     1.1965426   -1.8966498    6.7560052 
C     2.1822667    0.3298490    6.8073687 
C    -0.8757480    1.3911616    7.5146428 
H    -0.0913734    3.3927833    7.8425877 
C    -1.8603020   -0.8359455    7.4575865 
C    -1.6080385    0.3627473    8.1394625 
H    -2.2906043   -1.6876865    8.0139398 
C    -0.0901511    2.3946601    8.3322643 
C     1.0430848   -1.7978123    8.1520859 
C     1.7417378    0.5428428    8.1291584 
H    -0.5765454    2.5202783    9.3228506 
H     2.0884108    2.6571238    7.9897367 
C     1.4390218    1.9667575    8.5692725 
H     0.6088470   -2.6490924    8.7041503 
H    -1.8615332    0.4457135    9.2098552 
C     1.3205860   -0.6087143    8.8614196 
H     1.6689985    2.1392178    9.6395602 
H    -0.8142293   -1.6675459   10.2438986 
C     1.0630220   -0.5621935   10.3232440 
H     2.9061808    0.5025734   10.7844683 
C    -0.0773127   -1.1744140   10.8968665 
C     1.9850353    0.0611920   11.1979599 
C    -0.3050733   -1.1506842   12.2776023 
C     1.7718153    0.0946172   12.5801658 
H    -1.2032191   -1.6272323   12.7022202 
C     0.6205278   -0.5089805   13.1216323 
H     2.5060717    0.5754690   13.2478084 
S     0.3485885   -0.4859070   14.8873365 
Au    2.0099356    0.4875681   16.4337564 
Au   -1.3817821    0.5179033   16.4188085 
Au    0.3368749   -2.4399642   16.4271188 
Au    0.3189900    1.1861200   18.7082800 
Au   -2.5660100    1.1861200   18.7082800 
Au    3.2039900    1.1861200   18.7082800 
Au   -1.1235100   -1.3123700   18.7082800 
Au    0.3189900   -3.8108500   18.7082800 
Au    1.7614900   -1.3123700   18.7082800 
Au   -4.0085100    2.0189400   21.0638700 
Au    1.7614900    2.0189400   21.0638700 
Au    4.6464900    2.0189400   21.0638700 
Au   -1.1235100    2.0189400   21.0638700 
Au    0.3189900   -5.4765100   21.0638700 
Au    3.2039900   -0.4795400   21.0638700 
Au   -1.1235100   -2.9780200   21.0638700 
Au    1.7614900   -2.9780200   21.0638700 
Au    0.3189900   -0.4795400   21.0638700 
Au   -2.5660100   -0.4795400   21.0638700 
